<?xml version="1.0" encoding="UTF-8"?>
<types>
   <type id="a" priority="0" numLanes="4" speed="50"/>
   <type id="b" priority="0" numLanes="4" speed="50"/>
</types>
